<routes>
    <!-- Emergency Vehicle Type Definition -->
    <vType id="emergency" vClass="emergency" color="red" guiShape="emergency" speedFactor="1.3" minGap="1.5">
        <param key="has.bluelight" value="true"/>
    </vType>

    <!-- Emergency Vehicle Routes -->
    <route id="emergency_route_NS" edges="edge1 edge2" color="red"/>
    <route id="emergency_route_EW" edges="edge3 edge4" color="red"/>

    <!-- Scheduled Emergency Vehicles -->
    <vehicle id="ambulance1" type="emergency" route="emergency_route_NS" depart="300" departSpeed="max">
        <param key="priority" value="1"/>
    </vehicle>
    
    <vehicle id="police1" type="emergency" route="emergency_route_EW" depart="600" departSpeed="max">
        <param key="priority" value="1"/>
    </vehicle>
</routes>