<?xml version="1.0" encoding="UTF-8"?>

<!-- generated on 2025-06-04 14:19:21 by Eclipse SUMO polyconvert Version 1.23.1
<polyconvertConfiguration xmlns:xsi="http://www.w3.org/2001/XMLSchema-instance" xsi:noNamespaceSchemaLocation="http://sumo.dlr.de/xsd/polyconvertConfiguration.xsd">

    <input>
        <net-file value="test.net.xml"/>
        <osm-files value="map.osm"/>
        <type-file value="typemap.xml"/>
    </input>

    <output>
        <output-file value="map.poly.xml"/>
    </output>

    <report>
        <xml-validation value="never"/>
    </report>

</polyconvertConfiguration>
-->

<additional xmlns:xsi="http://www.w3.org/2001/XMLSchema-instance" xsi:noNamespaceSchemaLocation="http://sumo.dlr.de/xsd/additional_file.xsd">
    <location netOffset="-585751.72,-2815813.46" convBoundary="0.00,-0.00,1496.57,4141.03" origBoundary="81.853058,25.456844,81.867951,25.494225" projParameter="+proj=utm +zone=44 +ellps=WGS84 +datum=WGS84 +units=m +no_defs"/>

    <poly id="1001026092" type="building" color="255,230,230" fill="1" layer="-1.00" shape="281.396127,1592.917543 297.945642,1583.244821 290.596127,1570.815966 274.046603,1580.488697 281.396127,1592.917543"/>
    <poly id="1001026093" type="building" color="255,230,230" fill="1" layer="-1.00" shape="296.043082,1577.374024 315.503956,1566.778671 311.429749,1559.365592 291.958885,1569.949812 296.043082,1577.374024"/>
    <poly id="1001026094" type="building" color="255,230,230" fill="1" layer="-1.00" shape="302.402569,1590.549607 322.577966,1579.837034 316.061152,1567.679312 295.885743,1578.391895 302.402569,1590.549607"/>
    <poly id="1002371155" type="building" color="255,230,230" fill="1" layer="-1.00" shape="537.786660,1403.825687 548.325068,1401.889050 547.304684,1396.422594 536.776253,1398.370371 537.786660,1403.825687"/>
    <poly id="1002371156" type="building" color="255,230,230" fill="1" layer="-1.00" shape="532.737299,1413.583287 538.114160,1412.288952 534.695566,1398.312666 529.328681,1399.618141 532.737299,1413.583287"/>
    <poly id="1002371157" type="building" color="255,230,230" fill="1" layer="-1.00" shape="476.838026,1404.573835 491.813865,1400.472913 488.786581,1380.363717 473.502002,1382.447040 476.838026,1404.573835"/>
    <poly id="1002371158" type="building" color="255,230,230" fill="1" layer="-1.00" shape="577.796342,1410.517997 585.000784,1409.556632 584.127440,1403.116537 576.922994,1404.077903 577.796342,1410.517997"/>
    <poly id="1002371159" type="building" color="255,230,230" fill="1" layer="-1.00" shape="546.695195,1476.965763 550.490723,1476.126386 549.181237,1470.281523 545.375655,1471.120835 546.695195,1476.965763"/>
    <poly id="1002371160" type="building" color="255,230,230" fill="1" layer="-1.00" shape="482.724048,1517.807356 493.244317,1517.110941 492.675096,1508.712569 482.164873,1509.409049 482.724048,1517.807356"/>
    <poly id="1002371161" type="building" color="255,230,230" fill="1" layer="-1.00" shape="551.616338,1387.258286 567.482799,1383.805525 566.056814,1377.317571 550.190345,1380.770333 551.616338,1387.258286"/>
    <poly id="1002371162" type="building" color="255,230,230" fill="1" layer="-1.00" shape="533.429797,1432.492449 542.471145,1430.413265 540.749414,1423.015273 531.698009,1425.094393 533.429797,1432.492449"/>
    <poly id="1002371163" type="building" color="255,230,230" fill="1" layer="-1.00" shape="575.869213,1403.794240 585.631620,1402.151650 586.232489,1405.633014 593.931745,1404.331524 592.352437,1395.118174 589.212329,1395.651670 587.807545,1387.436179 582.966548,1388.257731 582.104383,1383.202060 572.633787,1384.802234 575.869213,1403.794240"/>
    <poly id="1002371164" type="building" color="255,230,230" fill="1" layer="-1.00" shape="549.452638,1498.368993 561.205963,1495.100145 558.227942,1484.526657 546.474538,1487.806581 549.452638,1498.368993"/>
    <poly id="1002371165" type="building" color="255,230,230" fill="1" layer="-1.00" shape="551.978663,1482.360019 563.642442,1480.508172 561.438519,1466.816576 549.774727,1468.668425 551.978663,1482.360019"/>
    <poly id="1002371166" type="building" color="255,230,230" fill="1" layer="-1.00" shape="531.260582,1489.868140 533.682009,1499.452378 538.555690,1498.232326 537.153941,1492.663739 538.714715,1492.275103 537.705093,1488.259516 531.260582,1489.868140"/>
    <poly id="1002371167" type="building" color="255,230,230" fill="1" layer="-1.00" shape="472.205435,1476.087271 485.981183,1472.554508 483.607129,1463.413578 469.831372,1466.946343 472.205435,1476.087271"/>
    <poly id="1002371168" type="building" color="255,230,230" fill="1" layer="-1.00" shape="506.516904,1507.406291 509.706177,1507.039215 508.686652,1498.316772 505.497377,1498.683849 506.516904,1507.406291"/>
    <poly id="1002371169" type="building" color="255,230,230" fill="1" layer="-1.00" shape="494.787051,1480.496480 505.592832,1477.620175 503.570142,1470.120576 497.265940,1471.796569 497.786408,1473.715863 493.284824,1474.916176 494.787051,1480.496480"/>
    <poly id="1002371170" type="building" color="255,230,230" fill="1" layer="-1.00" shape="486.253797,1492.668118 496.503799,1491.792767 495.596846,1481.199408 493.635310,1481.375047 493.243112,1476.710027 488.475234,1477.111240 488.166878,1473.476717 483.388947,1473.877868 483.445271,1474.498420 475.696730,1475.655682 476.375476,1485.782428 485.599440,1485.000136 486.253797,1492.668118"/>
    <poly id="1002371171" type="building" color="255,230,230" fill="1" layer="-1.00" shape="516.871123,1470.062277 529.957718,1468.950504 529.283920,1461.182721 516.197247,1462.305569 516.871123,1470.062277"/>
    <poly id="1002371172" type="building" color="255,230,230" fill="1" layer="-1.00" shape="509.606092,1478.875328 520.661198,1477.872284 520.060043,1471.312124 509.004932,1472.315168 509.606092,1478.875328"/>
    <poly id="1002371173" type="building" color="255,230,230" fill="1" layer="-1.00" shape="510.137086,1488.524908 519.774362,1487.568105 518.886030,1478.768983 513.172034,1479.341290 513.342144,1481.025757 509.418786,1481.421328 510.137086,1488.524908"/>
    <poly id="1002371174" type="building" color="255,230,230" fill="1" layer="-1.00" shape="543.254209,1507.033852 540.719282,1497.902948 529.963274,1500.857069 532.498350,1509.965822 543.254209,1507.033852"/>
    <poly id="1009603080" type="building" color="255,230,230" fill="1" layer="-1.00" shape="1171.664566,1012.021951 1179.542713,1009.536943 1176.172900,998.971842 1168.294748,1001.456852 1171.664566,1012.021951"/>
    <poly id="1009603081" type="building" color="255,230,230" fill="1" layer="-1.00" shape="1176.045531,1021.696552 1182.080036,1019.797621 1179.380270,1011.330010 1173.345761,1013.228941 1176.045531,1021.696552"/>
    <poly id="1009603082" type="building" color="255,230,230" fill="1" layer="-1.00" shape="1176.815432,1028.545789 1174.756654,1029.750658 1173.436933,1031.713413 1173.099992,1034.059088 1173.819293,1036.311945 1175.456893,1038.039170 1177.673280,1038.884166 1180.047222,1038.689151 1182.105927,1037.495357 1183.425720,1035.521529 1183.762663,1033.175854 1183.043364,1030.922996 1181.405764,1029.195770 1179.189376,1028.350774 1176.815432,1028.545789"/>
    <poly id="1009603083" type="building" color="255,230,230" fill="1" layer="-1.00" shape="1184.634766,1059.905063 1195.155914,1054.491316 1191.054947,1046.601572 1180.533795,1052.015322 1184.634766,1059.905063"/>
    <poly id="1009603084" type="building" color="255,230,230" fill="1" layer="-1.00" shape="1184.790653,1073.062966 1186.576119,1072.144269 1188.711118,1076.233662 1204.750084,1067.976285 1197.749587,1054.519228 1179.915091,1063.695245 1184.790653,1073.062966"/>
    <poly id="1009603089" type="building" color="255,230,230" fill="1" layer="-1.00" shape="1195.075877,1018.807715 1218.994417,1001.664119 1204.575809,981.768725 1180.657255,998.912346 1195.075877,1018.807715"/>
    <poly id="1024876297" type="building" color="255,230,230" fill="1" layer="-1.00" shape="532.316549,1338.449070 531.159860,1326.048907 544.186920,1324.837086 545.343598,1337.237250 532.316549,1338.449070"/>
    <poly id="1024876298" type="building" color="255,230,230" fill="1" layer="-1.00" shape="539.581663,1345.240436 538.665225,1339.243060 544.260429,1338.393126 545.176865,1344.390503 539.581663,1345.240436"/>
    <poly id="1024876299" type="building" color="255,230,230" fill="1" layer="-1.00" shape="581.046921,1299.270332 578.548368,1295.411268 573.147484,1298.865020 575.656091,1302.724149 581.046921,1299.270332"/>
    <poly id="1024876300" type="building" color="255,230,230" fill="1" layer="-1.00" shape="576.720146,1293.616439 573.735057,1288.812881 571.256249,1285.009319 566.037460,1288.287052 571.501359,1296.894169 576.720146,1293.616439"/>
    <poly id="1024876301" type="building" color="255,230,230" fill="1" layer="-1.00" shape="569.513386,1301.167307 562.761969,1305.143951 559.121867,1299.018272 562.018163,1297.320342 563.037450,1296.717796 564.390109,1298.985775 564.837573,1299.752821 567.673408,1298.076652 569.513386,1301.167307"/>
    <poly id="1024876302" type="building" color="255,230,230" fill="1" layer="-1.00" shape="564.390109,1298.985775 568.719511,1296.433247 564.999698,1290.196305 559.651079,1293.340306 562.018163,1297.320342 563.037450,1296.717796 564.390109,1298.985775"/>
    <poly id="1024876303" type="building" color="255,230,230" fill="1" layer="-1.00" shape="573.735057,1288.812881 576.440705,1287.058351 573.971879,1283.265928 571.256249,1285.009319 573.735057,1288.812881"/>
    <poly id="1024876304" type="building" color="255,230,230" fill="1" layer="-1.00" shape="576.569314,1288.941897 580.967237,1286.677760 583.052758,1290.667060 578.644782,1292.931132 576.569314,1288.941897"/>
    <poly id="1024876305" type="building" color="255,230,230" fill="1" layer="-1.00" shape="523.417717,1266.892782 530.191067,1253.270103 547.178006,1261.619203 540.394518,1275.252883 523.417717,1266.892782"/>
    <poly id="1076040495" type="building" color="255,230,230" fill="1" layer="-1.00" shape="437.799646,1290.683957 444.835946,1289.300590 443.404754,1282.048456 436.368450,1283.431824 437.799646,1290.683957"/>
    <poly id="1083503183" type="building" color="255,230,230" fill="1" layer="-1.00" shape="1161.008030,1221.122998 1155.490602,1214.619498 1182.248086,1192.178352 1187.765511,1198.681863 1161.008030,1221.122998"/>
    <poly id="1083503184" type="building" color="255,230,230" fill="1" layer="-1.00" shape="1223.446019,1249.724822 1205.283793,1235.087793 1214.912804,1230.797906 1223.446019,1249.724822"/>
    <poly id="1180059729" type="amenity" color="237,199,199" fill="1" layer="-1.00" shape="967.107583,1434.961335 977.209067,1438.404569 1024.272666,1313.718976 1022.214663,1314.813125 1010.101570,1339.431503 967.107583,1434.961335"/>
    <poly id="198062826" type="tourism" color="207,245,201" fill="1" layer="-2.00" shape="1061.331505,1234.364384 1070.713227,1227.891051 1116.416333,1269.806585 1100.737999,1270.557667 1077.508995,1276.033063 1058.597607,1282.344946 1063.566243,1264.945380 1064.972440,1255.839916 1063.687916,1246.174344 1061.331505,1234.364384"/>
    <poly id="198079997" type="amenity" color="237,199,199" fill="1" layer="-1.00" shape="231.692482,1088.728139 243.177727,1063.052970 274.577101,1045.557071 300.945357,1053.777825 320.659831,1091.448063 326.574604,1101.896384 319.572190,1105.816163 313.657414,1095.367845 252.754701,1129.463570 231.692482,1088.728139"/>
    <poly id="198082398" type="amenity" color="237,199,199" fill="1" layer="-1.00" shape="990.033104,1086.662713 978.769479,1082.547466 970.187240,1075.780558 964.538952,1067.725821 960.548210,1058.319615 958.726908,1050.799099 960.141796,1040.342556 961.785020,1034.992983 972.814510,1038.010291 1031.389850,987.977096 1038.132186,988.552371 1045.419861,993.406064 1052.642846,1002.035855 1057.141585,1009.064295 1057.101608,1015.232710 1040.331256,1029.310878 1045.910932,1035.537858 1037.278711,1042.691631 1041.278015,1050.768938 1027.150774,1060.356797 1014.155718,1073.650993 1006.286549,1076.313351 999.792203,1084.023661 990.033104,1086.662713"/>
    <poly id="202184997" type="amenity" color="237,199,199" fill="1" layer="-1.00" shape="1125.337412,1263.053432 1191.786635,1198.730115 1140.890196,1146.835444 1067.899950,1204.360967 1125.337412,1263.053432"/>
    <poly id="28800604" type="amenity" color="237,199,199" fill="1" layer="-1.00" shape="652.280510,710.981851 743.796446,836.341199 786.094564,906.130963 839.439161,974.696534 875.643356,1021.234421 1036.528553,1203.459936 1044.112661,1223.056142 1050.814937,1240.653171 1045.934231,1266.204380 977.536172,1397.208347 958.720144,1410.564568 932.759665,1426.488227 920.492591,1422.122876 892.954678,1409.939583 682.935250,1327.913546 637.242665,1321.605115 437.170974,1304.013977 357.000097,1290.618297 286.428417,1261.846493 221.848753,1240.843742 212.195078,1234.934285 206.615508,1227.079667 198.223969,1218.752940 201.584545,1207.367465 204.042248,1201.945512 212.683581,1190.150938 219.154238,1164.122397 192.603270,1135.833094 175.284414,1102.375768 159.835595,1075.165572 143.673467,1049.434846 106.876050,1004.102371 93.777459,1008.592306 44.289244,936.997887 120.601395,881.459517 88.996303,830.623011 198.999433,764.170835 203.347616,761.839804 303.831439,701.551413 298.097541,689.520580 375.555285,650.093704 382.008105,658.197641 387.020518,654.209719 398.417254,643.961294 425.678166,616.682209 497.209574,570.273994 522.616534,553.039077 652.280510,710.981851"/>
    <poly id="627769896" type="tourism" color="207,245,201" fill="1" layer="-2.00" shape="801.367795,1010.144595 802.120611,1011.888205 803.418523,1013.292018 805.111806,1014.188945 807.010162,1014.467008 808.791743,1014.146276 810.385890,1013.270593 811.620980,1011.949598 812.375588,1010.304327 812.558160,1008.500313 812.167407,1006.736892 811.232345,1005.191451 809.852574,1004.008604 808.167984,1003.322154 806.258500,1003.210142 804.425291,1003.740961 802.859801,1004.849401 801.763954,1006.403868 801.249410,1008.238962 801.367795,1010.144595"/>
    <poly id="627769903" type="tourism" color="207,245,201" fill="1" layer="-2.00" shape="914.147789,1450.256161 917.055835,1445.191637 918.914073,1440.784809 921.547200,1437.811648 921.429125,1435.861716 913.726134,1433.076385 902.518114,1426.624763 900.150524,1428.957306 905.074587,1437.051637 914.147789,1450.256161"/>
    <poly id="627769904" type="tourism" color="207,245,201" fill="1" layer="-2.00" shape="936.707798,1475.076876 942.374313,1477.184549 948.415063,1477.389777 954.448972,1475.546122 959.529916,1471.824654 963.072173,1466.631348 964.689784,1460.572819 964.197491,1454.312356 961.630771,1448.581128 957.307229,1444.012458 951.706039,1441.129965 945.458461,1440.258907 939.519531,1441.405468 934.262502,1444.372716 930.232243,1448.854082 927.833956,1454.375970 927.332742,1460.364205 928.782807,1466.210022 932.017333,1471.281076 936.707798,1475.076876"/>
    <poly id="627769928" type="tourism" color="207,245,201" fill="1" layer="-2.00" shape="714.701449,801.943287 682.589926,822.113698 677.000880,835.998667 676.351140,860.347974 758.989310,987.112089 777.931416,993.203763 809.956417,987.939723 830.067684,968.688781 714.701449,801.943287"/>
    <poly id="627769929" type="tourism" color="207,245,201" fill="1" layer="-2.00" shape="775.446455,1069.725732 862.273667,1011.634697 839.439161,974.696534 776.362864,1004.124468 765.655736,1038.353996 761.574674,1052.248675 775.446455,1069.725732"/>
    <poly id="701931416" type="military" color="153,153,92" fill="1" layer="-3.00" shape="1346.997260,3376.964554 1230.481203,3423.939329 1105.665457,2798.352021 1035.457612,2648.264421 958.078497,2523.337150 932.468528,2480.798965 905.361491,2419.479302 892.750515,2368.985032 860.074851,2167.654660 850.861692,2008.305807 855.391118,1890.875495 870.776173,1764.400838 893.137461,1641.183043 907.456203,1595.680648 961.492908,1496.268423 976.762612,1470.086746 1009.571277,1401.114832 1051.691634,1308.591816 1067.998780,1289.925689 1091.762365,1284.176873 1126.827952,1282.798439 1282.513085,1393.228556 1308.263636,1414.316282 1400.770312,1535.589363 1461.176698,1618.047171 1480.302234,1662.161007 1483.284220,1701.329995 1492.844887,1702.865235 1496.571957,1834.425424 1495.696874,1948.667815 1485.707770,2074.634473 1446.825038,2413.880642 1404.225334,2827.104969 1372.585707,3132.055559 1346.997260,3376.964554"/>
    <poly id="701941202" type="military" color="153,153,92" fill="1" layer="-3.00" shape="877.447174,2400.537868 862.314001,2405.800169 790.637735,2314.157543 710.591459,2184.386037 600.954693,2042.629525 520.151631,1943.952527 471.979149,1867.214933 472.958685,1861.849956 596.046843,1862.111548 605.298854,1702.616326 612.547835,1665.108376 690.898176,1558.343235 704.642199,1517.676634 735.098843,1499.765965 754.066058,1484.738120 764.499256,1477.296791 770.185039,1473.313364 775.315265,1472.848143 824.301196,1445.499833 847.193306,1408.104203 893.446375,1427.175184 916.924631,1467.019261 923.270639,1485.300563 939.400327,1493.987953 940.410039,1504.183326 903.859869,1568.845230 880.348699,1618.031447 855.338819,1732.649138 836.926766,1910.602166 837.004247,1923.493764 837.702440,2040.935738 846.624886,2175.308963 848.042995,2193.857400 869.604967,2361.869181 877.447174,2400.537868"/>
    <poly id="796379306" type="building" color="255,230,230" fill="1" layer="-1.00" shape="521.938099,983.091362 518.871848,978.386971 508.483550,985.064624 520.529445,1003.559601 528.434279,998.471807 527.558219,997.126113 530.051872,995.514179 537.593510,990.623398 529.519884,978.211909 521.938099,983.091362"/>
    <poly id="796379319" type="building" color="255,230,230" fill="1" layer="-1.00" shape="485.931334,1079.022014 459.498349,1035.582601 435.306017,1050.134251 445.602678,1067.056358 421.622248,1081.498647 415.344766,1071.180846 399.771703,1080.549627 406.138817,1091.000895 413.558240,1103.529924 453.283249,1079.620314 461.769279,1093.562735 485.931334,1079.022014"/>
    <poly id="796379320" type="building" color="255,230,230" fill="1" layer="-1.00" shape="428.412634,1232.414379 424.627457,1233.198484 426.209320,1240.473734 429.893964,1239.688982 428.946673,1235.352638 432.530716,1234.578314 431.885951,1231.661492 428.412634,1232.414379"/>
    <poly id="796379330" type="building" color="255,230,230" fill="1" layer="-1.00" shape="583.954493,1197.566954 586.113185,1201.124808 583.690933,1202.582144 582.716075,1200.970013 578.961597,1203.227223 579.916564,1204.806001 579.805622,1204.860660 581.586362,1207.784813 587.853926,1204.015480 588.152308,1204.515769 581.602114,1208.460477 583.024724,1210.795357 594.378993,1203.968945 592.926582,1201.578498 588.738465,1194.685118 583.954493,1197.566954"/>
    <poly id="796379333" type="building" color="255,230,230" fill="1" layer="-1.00" shape="335.860070,1166.666118 337.327297,1169.887241 339.535420,1168.893627 338.078246,1165.672568 335.860070,1166.666118"/>
    <poly id="796379335" type="building" color="255,230,230" fill="1" layer="-1.00" shape="560.297335,1038.601757 561.930587,1041.015514 564.808259,1039.095967 563.175007,1036.682210 560.297335,1038.601757"/>
    <poly id="796379336" type="building" color="255,230,230" fill="1" layer="-1.00" shape="606.650548,1033.041955 618.476608,1049.741492 628.353697,1042.828056 616.527643,1026.128511 606.650548,1033.041955"/>
    <poly id="796379338" type="building" color="255,230,230" fill="1" layer="-1.00" shape="598.958169,1064.433739 609.823242,1057.094742 597.861644,1039.585879 587.006618,1046.924950 598.958169,1064.433739"/>
    <poly id="796379339" type="building" color="255,230,230" fill="1" layer="-1.00" shape="568.212098,1064.733928 568.111289,1063.216030 538.419163,1065.339348 540.856045,1099.066755 570.517866,1096.954324 569.724301,1085.929778 574.320916,1085.605008 572.788685,1064.397954 568.212098,1064.733928"/>
    <poly id="796379340" type="building" color="255,230,230" fill="1" layer="-1.00" shape="558.828398,1015.368425 568.074611,1009.624810 561.586155,999.294504 552.349992,1005.038189 558.828398,1015.368425"/>
    <poly id="796379341" type="building" color="255,230,230" fill="1" layer="-1.00" shape="534.339421,997.911806 518.612535,1007.722456 524.334976,1016.796353 525.576524,1016.029114 539.121291,1037.501812 537.879672,1038.280124 542.636765,1045.819489 558.363555,1036.019942 534.339421,997.911806"/>
    <poly id="796379344" type="building" color="255,230,230" fill="1" layer="-1.00" shape="361.115718,1035.149092 362.373261,1038.147372 366.355054,1036.500677 365.097584,1033.491322 361.115718,1035.149092"/>
    <poly id="796379345" type="building" color="255,230,230" fill="1" layer="-1.00" shape="343.678237,1031.138670 345.742981,1035.249617 350.090037,1033.084749 348.025223,1028.984876 343.678237,1031.138670"/>
    <poly id="796379365" type="building" color="255,230,230" fill="1" layer="-1.00" shape="340.966515,1263.758500 346.828043,1263.707581 346.794706,1259.510017 353.370078,1259.452614 353.406617,1263.151833 364.084080,1263.054360 363.826434,1232.763119 340.691986,1232.957711 340.966515,1263.758500"/>
    <poly id="796379367" type="building" color="255,230,230" fill="1" layer="-1.00" shape="394.339261,1224.896883 401.161615,1222.393561 399.363145,1217.531229 392.540788,1220.034552 394.339261,1224.896883"/>
    <poly id="796379368" type="building" color="255,230,230" fill="1" layer="-1.00" shape="430.330090,1237.532201 430.728949,1241.167304 438.888087,1240.278449 438.489231,1236.643346 430.330090,1237.532201"/>
    <poly id="796379369" type="building" color="255,230,230" fill="1" layer="-1.00" shape="430.330638,1231.197417 432.897108,1230.759864 431.569212,1223.076480 429.002741,1223.514033 430.330638,1231.197417"/>
    <poly id="796379370" type="building" color="255,230,230" fill="1" layer="-1.00" shape="427.464249,1221.997960 430.220804,1221.705603 429.936668,1218.990448 427.170131,1219.271666 427.464249,1221.997960"/>
    <poly id="796379374" type="building" color="255,230,230" fill="1" layer="-1.00" shape="494.223551,1229.227611 498.806923,1229.390024 498.918439,1226.123674 494.335137,1225.950187 494.223551,1229.227611"/>
    <poly id="796379375" type="building" color="255,230,230" fill="1" layer="-1.00" shape="480.775455,1233.360522 485.699705,1233.669097 486.069963,1227.691086 481.145640,1227.393585 480.775455,1233.360522"/>
    <poly id="796379376" type="building" color="255,230,230" fill="1" layer="-1.00" shape="479.930994,1217.739609 480.018406,1224.462579 487.297802,1224.365475 487.220376,1217.653644 479.930994,1217.739609"/>
    <poly id="796379377" type="building" color="255,230,230" fill="1" layer="-1.00" shape="491.174965,1220.226313 497.577958,1220.400442 497.694751,1216.314590 491.291756,1216.140462 491.174965,1220.226313"/>
    <poly id="796379378" type="building" color="255,230,230" fill="1" layer="-1.00" shape="570.547441,1248.358208 552.826116,1215.119254 543.979042,1219.791192 561.690329,1253.030069 570.547441,1248.358208"/>
    <poly id="796379379" type="building" color="255,230,230" fill="1" layer="-1.00" shape="576.006390,1243.697674 581.013129,1253.043860 590.011563,1248.284324 584.994846,1238.926996 576.006390,1243.697674"/>
    <poly id="796379380" type="building" color="255,230,230" fill="1" layer="-1.00" shape="573.564074,1240.470238 587.217982,1234.046261 584.291856,1227.891955 570.638016,1234.304860 573.564074,1240.470238"/>
    <poly id="796379381" type="building" color="255,230,230" fill="1" layer="-1.00" shape="565.361458,1226.263767 568.844430,1233.374091 582.903037,1226.554025 579.430053,1219.454836 565.361458,1226.263767"/>
    <poly id="796379382" type="building" color="255,230,230" fill="1" layer="-1.00" shape="549.635792,1198.475411 564.822871,1225.595808 578.857464,1217.823149 563.660349,1190.702671 549.635792,1198.475411"/>
    <poly id="796379383" type="building" color="255,230,230" fill="1" layer="-1.00" shape="569.180839,1198.335567 573.519548,1205.263135 578.354422,1202.281950 574.015787,1195.343306 569.180839,1198.335567"/>
    <poly id="796379384" type="building" color="255,230,230" fill="1" layer="-1.00" shape="588.445856,1212.004232 590.275146,1215.194495 592.757357,1213.792921 590.928139,1210.591584 588.445856,1212.004232"/>
    <poly id="796379385" type="building" color="255,230,230" fill="1" layer="-1.00" shape="598.075816,1223.130048 602.796536,1220.701876 596.808816,1209.134396 592.088165,1211.551496 598.075816,1223.130048"/>
    <poly id="796379386" type="building" color="255,230,230" fill="1" layer="-1.00" shape="588.201044,1217.229964 593.469596,1226.511393 597.172591,1224.442127 591.904112,1215.149622 588.201044,1217.229964"/>
    <poly id="796379387" type="building" color="255,230,230" fill="1" layer="-1.00" shape="580.953381,1187.447385 585.921382,1184.090517 582.704547,1179.362988 577.726492,1182.719792 580.953381,1187.447385"/>
    <poly id="796379388" type="building" color="255,230,230" fill="1" layer="-1.00" shape="572.452073,1193.062892 580.307623,1187.808691 576.861920,1182.714220 569.006439,1187.957348 572.452073,1193.062892"/>
    <poly id="796379389" type="building" color="255,230,230" fill="1" layer="-1.00" shape="584.764042,1185.832876 588.580710,1191.084788 592.055203,1188.593205 588.238537,1183.341292 584.764042,1185.832876"/>
    <poly id="796379390" type="building" color="255,230,230" fill="1" layer="-1.00" shape="583.541757,1177.374919 585.063830,1179.876562 588.646769,1177.717921 587.124696,1175.216277 583.541757,1177.374919"/>
    <poly id="796379391" type="building" color="255,230,230" fill="1" layer="-1.00" shape="575.983616,1178.599805 577.828177,1180.981703 583.455918,1176.654503 581.611357,1174.272604 575.983616,1178.599805"/>
    <poly id="796379392" type="building" color="255,230,230" fill="1" layer="-1.00" shape="588.275255,1174.525981 592.346810,1180.787345 598.050769,1177.114056 593.979215,1170.852691 588.275255,1174.525981"/>
    <poly id="796379393" type="building" color="255,230,230" fill="1" layer="-1.00" shape="599.369991,1179.891264 608.461080,1191.954970 613.815248,1187.958264 604.724162,1175.894553 599.369991,1179.891264"/>
    <poly id="796379394" type="building" color="255,230,230" fill="1" layer="-1.00" shape="604.191673,1163.365512 607.074250,1168.478509 613.027263,1165.161226 610.144686,1160.048227 604.191673,1163.365512"/>
    <poly id="796379396" type="building" color="255,230,230" fill="1" layer="-1.00" shape="601.178530,1159.791071 602.999342,1162.737635 609.630632,1158.693786 607.819946,1155.736212 601.178530,1159.791071"/>
    <poly id="796379397" type="building" color="255,230,230" fill="1" layer="-1.00" shape="603.386062,1171.367404 597.372630,1162.225142 593.011164,1165.065400 600.597648,1176.598885 609.148960,1171.028017 607.575910,1168.636791 603.386062,1171.367404"/>
    <poly id="796379401" type="building" color="255,230,230" fill="1" layer="-1.00" shape="524.077746,1176.914228 538.282489,1167.702898 522.084683,1142.957110 520.439093,1144.020767 508.492296,1125.770066 492.773133,1135.968410 497.322805,1142.930534 500.482791,1140.879894 524.077746,1176.914228"/>
    <poly id="796379402" type="building" color="255,230,230" fill="1" layer="-1.00" shape="465.612290,1180.635431 501.629615,1157.942479 498.265512,1152.660283 504.604946,1148.658804 501.031793,1143.054091 494.692358,1147.055573 490.870366,1141.061643 476.344213,1150.226655 482.146900,1159.323204 472.567218,1165.352673 466.774581,1156.256194 454.862997,1163.765763 465.612290,1180.635431"/>
    <poly id="796379404" type="building" color="255,230,230" fill="1" layer="-1.00" shape="437.530751,1165.304365 444.268620,1175.935238 452.909273,1170.530969 447.037197,1161.278940 441.384397,1164.819723 440.508554,1163.440811 437.530751,1165.304365"/>
    <poly id="796379405" type="building" color="255,230,230" fill="1" layer="-1.00" shape="440.561542,1144.270667 446.579719,1152.693023 453.255525,1147.973822 447.247402,1139.551528 440.561542,1144.270667"/>
    <poly id="796379406" type="building" color="255,230,230" fill="1" layer="-1.00" shape="432.107310,1145.700290 496.682789,1106.490305 486.116640,1089.278475 411.528795,1134.570614 422.174641,1151.904720 423.042636,1151.378714 433.131247,1167.812186 442.275557,1162.256104 432.107310,1145.700290"/>
    <poly id="796379410" type="building" color="255,230,230" fill="1" layer="-1.00" shape="323.649814,1053.270295 327.525161,1058.799374 331.665643,1055.924386 327.790297,1050.395306 323.649814,1053.270295"/>
    <poly id="806737356" type="building" color="255,230,230" fill="1" layer="-1.00" shape="1189.857116,953.886453 1205.054652,969.954997 1211.417099,964.004823 1221.622014,974.791508 1229.167972,967.730469 1203.765523,940.875218 1189.857116,953.886453"/>
    <poly id="807054058" type="building" color="255,230,230" fill="1" layer="-1.00" shape="731.045187,1581.051095 746.594549,1581.528065 747.229024,1561.121274 731.679639,1560.644304 731.045187,1581.051095"/>
    <poly id="807056715" type="building" color="255,230,230" fill="1" layer="-1.00" shape="1118.900164,1465.005430 1130.699726,1454.638412 1128.923228,1452.633418 1136.900724,1445.641582 1126.640829,1434.079350 1119.603647,1440.246679 1126.070927,1447.542643 1113.331192,1458.712030 1118.900164,1465.005430"/>
    <poly id="807058176" type="building" color="255,230,230" fill="1" layer="-1.00" shape="1186.364637,1566.257394 1178.012608,1558.162849 1171.474875,1564.831759 1165.049658,1561.910600 1157.975537,1569.129777 1162.541246,1573.545041 1152.360200,1583.933608 1160.911990,1592.228781 1186.364637,1566.257394"/>
    <poly id="807058182" type="building" color="255,230,230" fill="1" layer="-1.00" shape="1160.487119,1267.312716 1151.221060,1257.506743 1146.679544,1261.741084 1141.647114,1256.414667 1136.104236,1261.583875 1145.729700,1271.779788 1149.573379,1268.183259 1154.256386,1273.130867 1160.487119,1267.312716"/>