<?xml version="1.0" encoding="UTF-8"?>

<!-- generated on 2025-06-12 15:36:51 by Eclipse SUMO netedit Version 1.23.1
<neteditConfiguration xmlns:xsi="http://www.w3.org/2001/XMLSchema-instance" xsi:noNamespaceSchemaLocation="http://sumo.dlr.de/xsd/neteditConfiguration.xsd">

    <input>
        <sumocfg-file value="C:\Users\anura\OneDrive\Desktop\PLUS PATH\config\map.sumo.cfg"/>
        <additional-files value="C:\Users\anura\OneDrive\Desktop\PLUS PATH\config\map.poly.xml"/>
        <route-files value="C:\Users\anura\OneDrive\Desktop\PLUS PATH\config\trips.trips.xml"/>
        <sumo-net-file value="C:\Users\anura\OneDrive\Desktop\PLUS PATH\config\test.net.xml"/>
    </input>

    <output>
        <output-file value="C:\Users\anura\OneDrive\Desktop\PLUS PATH\config\test.net.xml"/>
    </output>

    <processing>
        <geometry.min-radius.fix.railways value="false"/>
        <geometry.avoid-overlap value="false"/>
        <geometry.max-grade.fix value="false"/>
        <offset.disable-normalization value="true"/>
        <lefthand value="0"/>
    </processing>

    <junctions>
        <no-turnarounds value="true"/>
        <junctions.corner-detail value="5"/>
        <junctions.limit-turn-speed value="5.50"/>
        <rectangular-lane-cut value="0"/>
    </junctions>

    <pedestrian>
        <walkingareas value="0"/>
    </pedestrian>

</neteditConfiguration>
-->

<net version="1.20" junctionCornerDetail="5" limitTurnSpeed="5.50" avoidOverlap="0" xmlns:xsi="http://www.w3.org/2001/XMLSchema-instance" xsi:noNamespaceSchemaLocation="http://sumo.dlr.de/xsd/net_file.xsd">

    <location netOffset="-585751.72,-2815813.46" convBoundary="0.00,0.00,1445.96,4141.03" origBoundary="81.853058,25.456844,81.867432,25.494225" projParameter="+proj=utm +zone=44 +ellps=WGS84 +datum=WGS84 +units=m +no_defs"/>

    <type id="highway.footway" priority="1" numLanes="1" speed="2.78" allow="pedestrian" oneway="1" width="2.00"/>
    <type id="highway.residential" priority="3" numLanes="1" speed="13.89" disallow="tram rail_urban rail rail_electric rail_fast ship container cable_car subway aircraft wheelchair scooter drone" oneway="0"/>
    <type id="highway.secondary" priority="11" numLanes="1" speed="27.78" disallow="tram rail_urban rail rail_electric rail_fast ship container cable_car subway aircraft wheelchair scooter drone" oneway="0"/>
    <type id="highway.service" priority="1" numLanes="1" speed="5.56" allow="pedestrian delivery bicycle" oneway="0"/>
    <type id="highway.tertiary" priority="10" numLanes="1" speed="22.22" disallow="tram rail_urban rail rail_electric rail_fast ship container cable_car subway aircraft wheelchair scooter drone" oneway="0"/>
    <type id="highway.trunk" priority="13" numLanes="2" speed="27.78" disallow="pedestrian bicycle tram rail_urban rail rail_electric rail_fast ship container cable_car subway aircraft wheelchair scooter drone" oneway="0"/>

    <edge id=":10113324771_0" function="internal">
        <lane id=":10113324771_0_0" index="0" disallow="tram rail_urban rail rail_electric rail_fast ship container cable_car subway aircraft wheelchair scooter drone" speed="13.89" length="14.49" shape="1081.68,1531.31 1079.50,1534.28 1077.42,1537.19 1075.49,1540.20 1073.78,1543.44"/>
    </edge>
    <edge id=":10113324771_1" function="internal">
        <lane id=":10113324771_1_0" index="0" disallow="tram rail_urban rail rail_electric rail_fast ship container cable_car subway aircraft wheelchair scooter drone" speed="8.70" length="3.87" shape="1081.68,1531.31 1079.12,1533.90 1078.91,1533.99"/>
    </edge>
    <edge id=":10113324771_2" function="internal">
        <lane id=":10113324771_2_0" index="0" disallow="tram rail_urban rail rail_electric rail_fast ship container cable_car subway aircraft wheelchair scooter drone" speed="3.65" length="1.44" shape="1081.68,1531.31 1080.33,1531.82"/>
    </edge>
    <edge id=":10113324771_9" function="internal">
        <lane id=":10113324771_9_0" index="0" disallow="tram rail_urban rail rail_electric rail_fast ship container cable_car subway aircraft wheelchair scooter drone" speed="8.70" length="10.68" shape="1078.91,1533.99 1076.10,1535.19 1072.62,1535.19 1068.68,1533.89"/>
    </edge>
    <edge id=":10113324771_10" function="internal">
        <lane id=":10113324771_10_0" index="0" disallow="tram rail_urban rail rail_electric rail_fast ship container cable_car subway aircraft wheelchair scooter drone" speed="3.65" length="3.23" shape="1080.33,1531.82 1079.44,1531.67 1079.03,1530.88 1079.08,1529.44"/>
    </edge>
    <edge id=":10113324771_3" function="internal">
        <lane id=":10113324771_3_0" index="0" disallow="tram rail_urban rail rail_electric rail_fast ship container cable_car subway aircraft wheelchair scooter drone" speed="7.33" length="10.06" shape="1070.04,1530.99 1072.83,1531.93 1075.26,1531.99 1077.35,1531.16 1079.08,1529.44"/>
    </edge>
    <edge id=":10113324771_4" function="internal">
        <lane id=":10113324771_4_0" index="0" disallow="tram rail_urban rail rail_electric rail_fast ship container cable_car subway aircraft wheelchair scooter drone" speed="8.17" length="14.80" shape="1070.04,1530.99 1073.20,1533.14 1074.88,1535.93 1075.07,1539.36 1073.78,1543.44"/>
    </edge>
    <edge id=":10113324771_5" function="internal">
        <lane id=":10113324771_5_0" index="0" disallow="tram rail_urban rail rail_electric rail_fast ship container cable_car subway aircraft wheelchair scooter drone" speed="3.65" length="4.67" shape="1070.04,1530.99 1070.79,1532.22 1070.81,1533.12 1070.11,1533.67 1068.68,1533.89"/>
    </edge>
    <edge id=":10113324771_6" function="internal">
        <lane id=":10113324771_6_0" index="0" disallow="tram rail_urban rail rail_electric rail_fast ship container cable_car subway aircraft wheelchair scooter drone" speed="6.55" length="9.14" shape="1071.13,1541.53 1071.91,1539.05 1071.76,1536.95 1070.69,1535.23 1068.68,1533.89"/>
    </edge>
    <edge id=":10113324771_7" function="internal">
        <lane id=":10113324771_7_0" index="0" disallow="tram rail_urban rail rail_electric rail_fast ship container cable_car subway aircraft wheelchair scooter drone" speed="13.89" length="14.49" shape="1071.13,1541.53 1072.85,1538.30 1074.80,1535.31 1076.90,1532.40 1079.08,1529.44"/>
    </edge>
    <edge id=":10113324771_8" function="internal">
        <lane id=":10113324771_8_0" index="0" disallow="tram rail_urban rail rail_electric rail_fast ship container cable_car subway aircraft wheelchair scooter drone" speed="3.67" length="1.47" shape="1071.13,1541.53 1072.51,1541.02"/>
    </edge>
    <edge id=":10113324771_11" function="internal">
        <lane id=":10113324771_11_0" index="0" disallow="tram rail_urban rail rail_electric rail_fast ship container cable_car subway aircraft wheelchair scooter drone" speed="3.67" length="3.29" shape="1072.51,1541.02 1073.41,1541.16 1073.83,1541.97 1073.78,1543.44"/>
    </edge>
    <edge id=":10113324772_0" function="internal">
        <lane id=":10113324772_0_0" index="0" disallow="pedestrian bicycle tram rail_urban rail rail_electric rail_fast ship container cable_car subway aircraft wheelchair scooter drone" speed="6.02" length="7.94" shape="964.61,1485.30 963.45,1484.31 963.06,1482.81 963.45,1480.78 964.60,1478.23"/>
    </edge>
    <edge id=":10113324772_1" function="internal">
        <lane id=":10113324772_1_0" index="0" disallow="tram rail_urban rail rail_electric rail_fast ship container cable_car subway aircraft wheelchair scooter drone" speed="3.65" length="4.67" shape="964.61,1485.30 963.86,1484.06 963.84,1483.17 964.54,1482.61 965.96,1482.40"/>
    </edge>
    <edge id=":10113324772_2" function="internal">
        <lane id=":10113324772_2_0" index="0" disallow="pedestrian bicycle tram rail_urban rail rail_electric rail_fast ship container cable_car subway aircraft wheelchair scooter drone" speed="27.78" length="9.41" shape="957.28,1484.96 961.79,1476.70"/>
        <lane id=":10113324772_2_1" index="1" disallow="pedestrian bicycle tram rail_urban rail rail_electric rail_fast ship container cable_car subway aircraft wheelchair scooter drone" speed="27.78" length="9.41" shape="960.09,1486.49 964.60,1478.23"/>
    </edge>
    <edge id=":10113324772_4" function="internal">
        <lane id=":10113324772_4_0" index="0" disallow="pedestrian bicycle tram rail_urban rail rail_electric rail_fast ship container cable_car subway aircraft wheelchair scooter drone" speed="6.25" length="7.86" shape="960.09,1486.49 961.57,1484.19 963.04,1482.74 964.51,1482.14 965.96,1482.40"/>
    </edge>
    <edge id=":10542552249_0" function="internal">
        <lane id=":10542552249_0_0" index="0" disallow="tram rail_urban rail rail_electric rail_fast ship container cable_car subway aircraft wheelchair scooter drone" speed="13.91" length="15.90" shape="1159.40,1115.95 1155.60,1117.12 1151.72,1118.59 1148.24,1120.58 1145.67,1123.33"/>
    </edge>
    <edge id=":10542552249_1" function="internal">
        <lane id=":10542552249_1_0" index="0" disallow="tram rail_urban rail rail_electric rail_fast ship container cable_car subway aircraft wheelchair scooter drone" speed="6.84" length="16.62" shape="1159.40,1115.95 1152.74,1117.56 1148.72,1117.51 1147.33,1115.82 1148.57,1112.48"/>
    </edge>
    <edge id=":10542552249_2" function="internal">
        <lane id=":10542552249_2_0" index="0" disallow="tram rail_urban rail rail_electric rail_fast ship container cable_car subway aircraft wheelchair scooter drone" speed="3.65" length="4.67" shape="1159.40,1115.95 1158.02,1115.54 1157.40,1114.89 1157.55,1114.01 1158.46,1112.89"/>
    </edge>
    <edge id=":10542552249_3" function="internal">
        <lane id=":10542552249_3_0" index="0" disallow="tram rail_urban rail rail_electric rail_fast ship container cable_car subway aircraft wheelchair scooter drone" speed="4.87" length="7.58" shape="1151.30,1114.16 1151.48,1114.50 1152.74,1114.41 1155.07,1113.87 1158.46,1112.89"/>
    </edge>
    <edge id=":10542552249_4" function="internal">
        <lane id=":10542552249_4_0" index="0" disallow="tram rail_urban rail rail_electric rail_fast ship container cable_car subway aircraft wheelchair scooter drone" speed="27.78" length="10.76" shape="1151.30,1114.16 1145.67,1123.33"/>
    </edge>
    <edge id=":10542552249_5" function="internal">
        <lane id=":10542552249_5_0" index="0" disallow="tram rail_urban rail rail_electric rail_fast ship container cable_car subway aircraft wheelchair scooter drone" speed="3.65" length="1.44" shape="1151.30,1114.16 1149.99,1114.76"/>
    </edge>
    <edge id=":10542552249_9" function="internal">
        <lane id=":10542552249_9_0" index="0" disallow="tram rail_urban rail rail_electric rail_fast ship container cable_car subway aircraft wheelchair scooter drone" speed="3.65" length="3.23" shape="1149.99,1114.76 1149.09,1114.68 1148.62,1113.92 1148.57,1112.48"/>
    </edge>
    <edge id=":10542552249_6" function="internal">
        <lane id=":10542552249_6_0" index="0" disallow="tram rail_urban rail rail_electric rail_fast ship container cable_car subway aircraft wheelchair scooter drone" speed="27.78" length="10.76" shape="1142.94,1121.65 1148.57,1112.48"/>
    </edge>
    <edge id=":10542552249_7" function="internal">
        <lane id=":10542552249_7_0" index="0" disallow="tram rail_urban rail rail_electric rail_fast ship container cable_car subway aircraft wheelchair scooter drone" speed="14.82" length="3.35" shape="1142.94,1121.65 1145.26,1119.24"/>
    </edge>
    <edge id=":10542552249_8" function="internal">
        <lane id=":10542552249_8_0" index="0" disallow="tram rail_urban rail rail_electric rail_fast ship container cable_car subway aircraft wheelchair scooter drone" speed="3.65" length="1.44" shape="1142.94,1121.65 1144.25,1121.05"/>
    </edge>
    <edge id=":10542552249_10" function="internal">
        <lane id=":10542552249_10_0" index="0" disallow="tram rail_urban rail rail_electric rail_fast ship container cable_car subway aircraft wheelchair scooter drone" speed="14.82" length="14.75" shape="1145.26,1119.24 1145.80,1118.69 1149.89,1116.22 1154.39,1114.28 1158.46,1112.89"/>
    </edge>
    <edge id=":10542552249_11" function="internal">
        <lane id=":10542552249_11_0" index="0" disallow="tram rail_urban rail rail_electric rail_fast ship container cable_car subway aircraft wheelchair scooter drone" speed="3.65" length="3.23" shape="1144.25,1121.05 1145.14,1121.13 1145.61,1121.89 1145.67,1123.33"/>
    </edge>
    <edge id=":11121108061_0" function="internal">
        <lane id=":11121108061_0_0" index="0" disallow="tram rail_urban rail rail_electric rail_fast ship container cable_car subway aircraft wheelchair scooter drone" speed="5.10" length="6.02" shape="1074.22,1027.76 1073.35,1027.78 1071.83,1028.72 1070.26,1029.96 1069.22,1030.83"/>
    </edge>
    <edge id=":11121108061_1" function="internal">
        <lane id=":11121108061_1_0" index="0" disallow="tram rail_urban rail rail_electric rail_fast ship container cable_car subway aircraft wheelchair scooter drone" speed="13.89" length="9.50" shape="1074.22,1027.76 1069.81,1019.35"/>
    </edge>
    <edge id=":11121108061_2" function="internal">
        <lane id=":11121108061_2_0" index="0" disallow="tram rail_urban rail rail_electric rail_fast ship container cable_car subway aircraft wheelchair scooter drone" speed="3.65" length="1.44" shape="1074.22,1027.76 1074.37,1026.33"/>
    </edge>
    <edge id=":11121108061_9" function="internal">
        <lane id=":11121108061_9_0" index="0" disallow="tram rail_urban rail rail_electric rail_fast ship container cable_car subway aircraft wheelchair scooter drone" speed="3.65" length="3.23" shape="1074.37,1026.33 1074.90,1025.60 1075.79,1025.59 1077.06,1026.28"/>
    </edge>
    <edge id=":11121108061_3" function="internal">
        <lane id=":11121108061_3_0" index="0" disallow="tram rail_urban rail rail_electric rail_fast ship container cable_car subway aircraft wheelchair scooter drone" speed="13.89" length="9.50" shape="1072.65,1017.87 1077.06,1026.28"/>
    </edge>
    <edge id=":11121108061_4" function="internal">
        <lane id=":11121108061_4_0" index="0" disallow="tram rail_urban rail rail_electric rail_fast ship container cable_car subway aircraft wheelchair scooter drone" speed="8.87" length="3.76" shape="1072.65,1017.87 1073.80,1021.28 1073.79,1021.44"/>
    </edge>
    <edge id=":11121108061_5" function="internal">
        <lane id=":11121108061_5_0" index="0" disallow="tram rail_urban rail rail_electric rail_fast ship container cable_car subway aircraft wheelchair scooter drone" speed="3.65" length="1.44" shape="1072.65,1017.87 1072.50,1019.30"/>
    </edge>
    <edge id=":11121108061_10" function="internal">
        <lane id=":11121108061_10_0" index="0" disallow="tram rail_urban rail rail_electric rail_fast ship container cable_car subway aircraft wheelchair scooter drone" speed="8.87" length="10.87" shape="1073.79,1021.44 1073.61,1024.57 1072.08,1027.76 1069.22,1030.83"/>
    </edge>
    <edge id=":11121108061_11" function="internal">
        <lane id=":11121108061_11_0" index="0" disallow="tram rail_urban rail rail_electric rail_fast ship container cable_car subway aircraft wheelchair scooter drone" speed="3.65" length="3.23" shape="1072.50,1019.30 1071.97,1020.02 1071.08,1020.04 1069.81,1019.35"/>
    </edge>
    <edge id=":11121108061_6" function="internal">
        <lane id=":11121108061_6_0" index="0" disallow="tram rail_urban rail rail_electric rail_fast ship container cable_car subway aircraft wheelchair scooter drone" speed="7.52" length="10.28" shape="1067.14,1028.40 1069.23,1026.19 1070.37,1023.95 1070.56,1021.67 1069.81,1019.35"/>
    </edge>
    <edge id=":11121108061_7" function="internal">
        <lane id=":11121108061_7_0" index="0" disallow="tram rail_urban rail rail_electric rail_fast ship container cable_car subway aircraft wheelchair scooter drone" speed="6.80" length="11.66" shape="1067.14,1028.40 1070.62,1025.83 1073.43,1024.61 1075.57,1024.76 1077.06,1026.28"/>
    </edge>
    <edge id=":11121108061_8" function="internal">
        <lane id=":11121108061_8_0" index="0" disallow="tram rail_urban rail rail_electric rail_fast ship container cable_car subway aircraft wheelchair scooter drone" speed="3.65" length="4.67" shape="1067.14,1028.40 1068.57,1028.23 1069.40,1028.58 1069.61,1029.45 1069.22,1030.83"/>
    </edge>
    <edge id=":11121108062_0" function="internal">
        <lane id=":11121108062_0_0" index="0" disallow="tram rail_urban rail rail_electric rail_fast ship container cable_car subway aircraft wheelchair scooter drone" speed="3.65" length="4.67" shape="989.11,1099.36 987.68,1099.53 986.85,1099.18 986.64,1098.31 987.03,1096.92"/>
    </edge>
    <edge id=":11121108064_0" function="internal">
        <lane id=":11121108064_0_0" index="0" disallow="pedestrian bicycle tram rail_urban rail rail_electric rail_fast ship container cable_car subway aircraft wheelchair scooter drone" speed="27.78" length="13.53" shape="898.68,1029.61 889.68,1019.52"/>
        <lane id=":11121108064_0_1" index="1" disallow="pedestrian bicycle tram rail_urban rail rail_electric rail_fast ship container cable_car subway aircraft wheelchair scooter drone" speed="27.78" length="13.53" shape="901.07,1027.48 892.06,1017.39"/>
    </edge>
    <edge id=":11121108064_2" function="internal">
        <lane id=":11121108064_2_0" index="0" disallow="pedestrian bicycle tram rail_urban rail rail_electric rail_fast ship container cable_car subway aircraft wheelchair scooter drone" speed="6.02" length="12.91" shape="901.07,1027.48 898.36,1023.86 897.89,1021.54 899.65,1020.55 903.64,1020.87"/>
    </edge>
    <edge id=":11121108064_3" function="internal">
        <lane id=":11121108064_3_0" index="0" disallow="pedestrian bicycle tram rail_urban rail rail_electric rail_fast ship container cable_car subway aircraft wheelchair scooter drone" speed="13.75" length="13.15" shape="903.04,1024.01 899.85,1023.25 897.31,1022.14 894.89,1020.31 892.06,1017.39"/>
    </edge>
    <edge id=":11121108064_4" function="internal">
        <lane id=":11121108064_4_0" index="0" disallow="tram rail_urban rail rail_electric rail_fast ship container cable_car subway aircraft wheelchair scooter drone" speed="3.65" length="4.67" shape="903.04,1024.01 902.01,1023.00 901.77,1022.14 902.31,1021.43 903.64,1020.87"/>
    </edge>
    <edge id=":11237496087_0" function="internal">
        <lane id=":11237496087_0_0" index="0" allow="pedestrian delivery bicycle" speed="3.65" length="4.67" shape="453.36,1487.04 451.97,1486.65 451.35,1486.01 451.48,1485.12 452.38,1484.00"/>
    </edge>
    <edge id=":11237515708_0" function="internal">
        <lane id=":11237515708_0_0" index="0" disallow="tram rail_urban rail rail_electric rail_fast ship container cable_car subway aircraft wheelchair scooter drone" speed="27.78" length="9.45" shape="293.27,1508.36 297.72,1516.69"/>
    </edge>
    <edge id=":11237515708_1" function="internal">
        <lane id=":11237515708_1_0" index="0" disallow="tram rail_urban rail rail_electric rail_fast ship container cable_car subway aircraft wheelchair scooter drone" speed="6.44" length="7.99" shape="293.27,1508.36 294.36,1510.84 294.76,1512.89 294.46,1514.50 293.45,1515.67"/>
    </edge>
    <edge id=":11237515708_2" function="internal">
        <lane id=":11237515708_2_0" index="0" disallow="tram rail_urban rail rail_electric rail_fast ship container cable_car subway aircraft wheelchair scooter drone" speed="5.97" length="8.11" shape="291.61,1513.06 293.13,1512.49 294.65,1512.90 296.18,1514.30 297.72,1516.69"/>
    </edge>
    <edge id=":11237515708_3" function="internal">
        <lane id=":11237515708_3_0" index="0" disallow="tram rail_urban rail rail_electric rail_fast ship container cable_car subway aircraft wheelchair scooter drone" speed="3.65" length="4.67" shape="291.61,1513.06 293.06,1513.02 293.84,1513.45 293.98,1514.33 293.45,1515.67"/>
    </edge>
    <edge id=":11330951948_0" function="internal">
        <lane id=":11330951948_0_0" index="0" disallow="tram rail_urban rail rail_electric rail_fast ship container cable_car subway aircraft wheelchair scooter drone" speed="3.65" length="4.67" shape="356.15,1459.69 354.74,1459.99 353.89,1459.71 353.60,1458.86 353.87,1457.45"/>
    </edge>
    <edge id=":12454369215_0" function="internal">
        <lane id=":12454369215_0_0" index="0" disallow="tram rail_urban rail rail_electric rail_fast ship container cable_car subway aircraft wheelchair scooter drone" speed="3.65" length="4.67" shape="1447.27,1584.47 1447.30,1585.91 1446.87,1586.69 1445.99,1586.82 1444.65,1586.29"/>
    </edge>
    <edge id=":12578784217_0" function="internal">
        <lane id=":12578784217_0_0" index="0" disallow="tram rail_urban rail rail_electric rail_fast ship container cable_car subway aircraft wheelchair scooter drone" speed="6.21" length="6.92" shape="1202.37,1097.17 1201.27,1096.49 1199.84,1096.41 1198.09,1096.94 1196.01,1098.06"/>
    </edge>
    <edge id=":12578784217_1" function="internal">
        <lane id=":12578784217_1_0" index="0" disallow="tram rail_urban rail rail_electric rail_fast ship container cable_car subway aircraft wheelchair scooter drone" speed="7.01" length="12.24" shape="1202.37,1097.17 1201.08,1094.95 1201.35,1092.61 1203.16,1090.14 1206.54,1087.56"/>
    </edge>
    <edge id=":12578784217_2" function="internal">
        <lane id=":12578784217_2_0" index="0" disallow="tram rail_urban rail rail_electric rail_fast ship container cable_car subway aircraft wheelchair scooter drone" speed="3.65" length="4.67" shape="1202.37,1097.17 1202.12,1095.75 1202.42,1094.91 1203.28,1094.65 1204.69,1094.96"/>
    </edge>
    <edge id=":12578784217_3" function="internal">
        <lane id=":12578784217_3_0" index="0" disallow="tram rail_urban rail rail_electric rail_fast ship container cable_car subway aircraft wheelchair scooter drone" speed="5.31" length="6.50" shape="1208.26,1090.26 1206.15,1091.75 1204.86,1093.03 1204.37,1094.10 1204.69,1094.96"/>
    </edge>
    <edge id=":12578784217_4" function="internal">
        <lane id=":12578784217_4_0" index="0" disallow="tram rail_urban rail rail_electric rail_fast ship container cable_car subway aircraft wheelchair scooter drone" speed="13.89" length="14.52" shape="1208.26,1090.26 1196.01,1098.06"/>
    </edge>
    <edge id=":12578784217_5" function="internal">
        <lane id=":12578784217_5_0" index="0" disallow="tram rail_urban rail rail_electric rail_fast ship container cable_car subway aircraft wheelchair scooter drone" speed="3.65" length="1.44" shape="1208.26,1090.26 1206.82,1090.23"/>
    </edge>
    <edge id=":12578784217_9" function="internal">
        <lane id=":12578784217_9_0" index="0" disallow="tram rail_urban rail rail_electric rail_fast ship container cable_car subway aircraft wheelchair scooter drone" speed="3.65" length="3.23" shape="1206.82,1090.23 1206.05,1089.77 1205.96,1088.88 1206.54,1087.56"/>
    </edge>
    <edge id=":12578784217_6" function="internal">
        <lane id=":12578784217_6_0" index="0" disallow="tram rail_urban rail rail_electric rail_fast ship container cable_car subway aircraft wheelchair scooter drone" speed="13.89" length="14.52" shape="1194.29,1095.37 1206.54,1087.56"/>
    </edge>
    <edge id=":12578784217_7" function="internal">
        <lane id=":12578784217_7_0" index="0" disallow="tram rail_urban rail rail_electric rail_fast ship container cable_car subway aircraft wheelchair scooter drone" speed="7.77" length="4.56" shape="1194.29,1095.37 1197.45,1093.74 1198.43,1093.52"/>
    </edge>
    <edge id=":12578784217_8" function="internal">
        <lane id=":12578784217_8_0" index="0" disallow="tram rail_urban rail rail_electric rail_fast ship container cable_car subway aircraft wheelchair scooter drone" speed="3.65" length="1.44" shape="1194.29,1095.37 1195.73,1095.40"/>
    </edge>
    <edge id=":12578784217_10" function="internal">
        <lane id=":12578784217_10_0" index="0" disallow="tram rail_urban rail rail_electric rail_fast ship container cable_car subway aircraft wheelchair scooter drone" speed="7.77" length="6.78" shape="1198.43,1093.52 1200.24,1093.13 1202.65,1093.54 1204.69,1094.96"/>
    </edge>
    <edge id=":12578784217_11" function="internal">
        <lane id=":12578784217_11_0" index="0" disallow="tram rail_urban rail rail_electric rail_fast ship container cable_car subway aircraft wheelchair scooter drone" speed="3.65" length="3.23" shape="1195.73,1095.40 1196.50,1095.85 1196.59,1096.74 1196.01,1098.06"/>
    </edge>
    <edge id=":12578784218_0" function="internal">
        <lane id=":12578784218_0_0" index="0" disallow="tram rail_urban rail rail_electric rail_fast ship container cable_car subway aircraft wheelchair scooter drone" speed="6.90" length="9.68" shape="1209.53,1105.41 1207.68,1103.78 1205.63,1103.13 1203.38,1103.45 1200.91,1104.75"/>
    </edge>
    <edge id=":12578784218_1" function="internal">
        <lane id=":12578784218_1_0" index="0" disallow="tram rail_urban rail rail_electric rail_fast ship container cable_car subway aircraft wheelchair scooter drone" speed="13.89" length="10.71" shape="1209.53,1105.41 1202.51,1097.32"/>
    </edge>
    <edge id=":12578784218_2" function="internal">
        <lane id=":12578784218_2_0" index="0" disallow="tram rail_urban rail rail_electric rail_fast ship container cable_car subway aircraft wheelchair scooter drone" speed="3.65" length="1.44" shape="1209.53,1105.41 1209.38,1103.98"/>
    </edge>
    <edge id=":12578784218_9" function="internal">
        <lane id=":12578784218_9_0" index="0" disallow="tram rail_urban rail rail_electric rail_fast ship container cable_car subway aircraft wheelchair scooter drone" speed="3.65" length="3.23" shape="1209.38,1103.98 1209.75,1103.16 1210.62,1102.96 1212.00,1103.38"/>
    </edge>
    <edge id=":12578784218_3" function="internal">
        <lane id=":12578784218_3_0" index="0" disallow="tram rail_urban rail rail_electric rail_fast ship container cable_car subway aircraft wheelchair scooter drone" speed="13.89" length="10.95" shape="1204.82,1095.11 1212.00,1103.38"/>
    </edge>
    <edge id=":12578784218_4" function="internal">
        <lane id=":12578784218_4_0" index="0" disallow="tram rail_urban rail rail_electric rail_fast ship container cable_car subway aircraft wheelchair scooter drone" speed="7.04" length="2.61" shape="1204.82,1095.11 1206.07,1097.27 1206.06,1097.38"/>
    </edge>
    <edge id=":12578784218_5" function="internal">
        <lane id=":12578784218_5_0" index="0" disallow="tram rail_urban rail rail_electric rail_fast ship container cable_car subway aircraft wheelchair scooter drone" speed="3.65" length="1.44" shape="1204.82,1095.11 1205.08,1096.53"/>
    </edge>
    <edge id=":12578784218_10" function="internal">
        <lane id=":12578784218_10_0" index="0" disallow="tram rail_urban rail rail_electric rail_fast ship container cable_car subway aircraft wheelchair scooter drone" speed="7.04" length="9.42" shape="1206.06,1097.38 1205.83,1099.60 1204.11,1102.09 1200.91,1104.75"/>
    </edge>
    <edge id=":12578784218_11" function="internal">
        <lane id=":12578784218_11_0" index="0" disallow="tram rail_urban rail rail_electric rail_fast ship container cable_car subway aircraft wheelchair scooter drone" speed="3.65" length="3.23" shape="1205.08,1096.53 1204.77,1097.37 1203.92,1097.63 1202.51,1097.32"/>
    </edge>
    <edge id=":12578784218_6" function="internal">
        <lane id=":12578784218_6_0" index="0" disallow="tram rail_urban rail rail_electric rail_fast ship container cable_car subway aircraft wheelchair scooter drone" speed="5.35" length="6.45" shape="1199.08,1102.13 1201.11,1100.57 1202.35,1099.25 1202.82,1098.17 1202.51,1097.32"/>
    </edge>
    <edge id=":12578784218_7" function="internal">
        <lane id=":12578784218_7_0" index="0" disallow="tram rail_urban rail rail_electric rail_fast ship container cable_car subway aircraft wheelchair scooter drone" speed="8.33" length="14.54" shape="1199.08,1102.13 1202.73,1100.23 1206.10,1099.81 1209.19,1100.86 1212.00,1103.38"/>
    </edge>
    <edge id=":12578784218_8" function="internal">
        <lane id=":12578784218_8_0" index="0" disallow="tram rail_urban rail rail_electric rail_fast ship container cable_car subway aircraft wheelchair scooter drone" speed="3.65" length="4.67" shape="1199.08,1102.13 1200.53,1102.10 1201.31,1102.53 1201.44,1103.41 1200.91,1104.75"/>
    </edge>
    <edge id=":12578784219_0" function="internal">
        <lane id=":12578784219_0_0" index="0" disallow="tram rail_urban rail rail_electric rail_fast ship container cable_car subway aircraft wheelchair scooter drone" speed="3.65" length="4.67" shape="1245.39,1144.08 1245.53,1145.51 1245.16,1146.33 1244.29,1146.53 1242.91,1146.10"/>
    </edge>
    <edge id=":12578784225_0" function="internal">
        <lane id=":12578784225_0_0" index="0" disallow="tram rail_urban rail rail_electric rail_fast ship container cable_car subway aircraft wheelchair scooter drone" speed="3.65" length="4.67" shape="1203.68,1170.03 1203.73,1171.47 1203.32,1172.27 1202.44,1172.41 1201.08,1171.91"/>
    </edge>
    <edge id=":2121664250_0" function="internal">
        <lane id=":2121664250_0_0" index="0" disallow="tram rail_urban rail rail_electric rail_fast ship container cable_car subway aircraft wheelchair scooter drone" speed="22.22" length="15.17" shape="1150.20,1294.27 1147.14,1292.06 1144.13,1289.72 1141.21,1287.27 1138.42,1284.73"/>
    </edge>
    <edge id=":2121664250_1" function="internal">